LTspice 24.0.12 for Windows
Circuit: * C:\Users\Michel\Desktop\Ring-Modulator\LTSpice paper simulations\Simulaciones paper\Draft1.asc
Start Time: Tue May 14 18:54:30 2024
Warning: Multiple definitions of model "2scr375p" Type: BJT
Warning: Multiple definitions of model "bc857b" Type: BJT
Warning: Multiple definitions of model "bc847c" Type: BJT
Warning: Multiple definitions of model "bc847b" Type: BJT
solver = Normal
Maximum thread count: 16
tnom = 27
temp = 27
method = modified trap
WARNING: Node XTAL_A is floating.

Per .tran options, skipping operating point for transient analysis.
Total elapsed time: 8.369 seconds.

